Circuit: * D:\UVG_1Ciclo_2023\Tesis\Tesis_WS_FredyGodoy19260\Circuitos\DriverMotor.asc

Warning: Multiple definitions of model "2scr375p" Type: BJT
Warning: Multiple definitions of model "bc857b" Type: BJT
Warning: Multiple definitions of model "bc847c" Type: BJT
Warning: Multiple definitions of model "bc847b" Type: BJT
WARNING: Less than two connections to node nc_01.  This node is used by q3.
Direct Newton iteration for .op point succeeded.

Date: Sat Jun 10 15:45:52 2023
Total elapsed time: 0.258 seconds.

tnom = 27
temp = 27
method = modified trap
totiter = 11377
traniter = 11335
tranpoints = 3153
accept = 2634
rejected = 519
matrix size = 15
fillins = 2
solver = Normal
Avg thread counts: 1.1/1.4/1.5/1.1
Matrix Compiler1: 704 bytes object code size  0.5/0.5/[0.4]
Matrix Compiler2: 1.22 KB object code size  0.6/0.6/[0.3]

