Circuit: * D:\UVG_1Ciclo_2023\Tesis\Tesis_WS_FredyGodoy19260\Circuitos\DriverMotor.asc

Warning: Multiple definitions of model "2scr375p" Type: BJT
Warning: Multiple definitions of model "bc857b" Type: BJT
Warning: Multiple definitions of model "bc847c" Type: BJT
Warning: Multiple definitions of model "bc847b" Type: BJT
Direct Newton iteration failed to find .op point.  (Use ".option noopiter" to skip.)
Starting Gmin stepping
Gmin = 10
Gmin = 1.07374
Gmin = 0.115292
Gmin = 0.0123794
Gmin = 0.00132923
Gmin = 0.000142725
Gmin = 1.5325e-05
Gmin = 1.6455e-06
Gmin = 1.76685e-07
Gmin = 1.89714e-08
Gmin = 2.03704e-09
Gmin = 2.18725e-10
Gmin = 2.34854e-11
Gmin = 2.52173e-12
Gmin = 2.70769e-13
Gmin = 0
Gmin stepping succeeded in finding the operating point.


Date: Thu Jun 22 02:06:57 2023
Total elapsed time: 0.166 seconds.

tnom = 27
temp = 27
method = modified trap
totiter = 18240
traniter = 17867
tranpoints = 6871
accept = 5245
rejected = 1626
matrix size = 31
fillins = 2
solver = Normal
Avg thread counts: 1.1/1.2/1.2/1.1
Matrix Compiler1:     142 opcodes  0.7/[0.4]/0.4
Matrix Compiler2: 2.75 KB object code size  0.4/0.5/[0.3]

